 INFO
nunit      1    1    1
unit   tr_asym
celltype   convcell
shape   parapipedal
 END_INFO
 DIM-GROUP
           3           5
 PRIMVEC
   -2.7339940480    0.0000000000    2.7339940480
    0.0000000000    2.7339940480    2.7339940480
   -2.7339940480    2.7339940480    0.0000000000
 CONVVEC
    5.4679880960    0.0000000000    0.0000000000
    0.0000000000    5.4679880960    0.0000000000
    0.0000000000    0.0000000000    5.4679880960
 PRIMCOORD
           2           1
 14      0.0000000000     0.0000000000     0.0000000000
 14      1.3669970240     1.3669970240     1.3669970240
 CONVCOORD
           2           4
 14      2.7339940480     2.7339940480     0.0000000000
 14      0.0000000000     0.0000000000     0.0000000000
 14      2.7339940480     0.0000000000     2.7339940480
 14      0.0000000000     2.7339940480     2.7339940480
 14      4.1009910720     4.1009910720     1.3669970240
 14      1.3669970240     1.3669970240     1.3669970240
 14      4.1009910720     1.3669970240     4.1009910720
 14      1.3669970240     4.1009910720     4.1009910720
 RECIP-PRIMVEC
   -0.1828826220   -0.1828826220    0.1828826220

    0.1828826220    0.1828826220    0.1828826220

   -0.1828826220    0.1828826220   -0.1828826220

 RECIP-CONVVEC
    0.1828826220    0.0000000000    0.0000000000

    0.0000000000    0.1828826220    0.0000000000

    0.0000000000    0.0000000000    0.1828826220

 WIGNER-SEITZ-PRIMCELL
           4
  0.1366997E+01 -0.1366997E+01 -0.1366997E+01   0.7071068E+00 -0.0000000E+00 -0.7071068E+00
  0.0000000E+00  0.0000000E+00 -0.2733994E+01   0.7071068E+00 -0.0000000E+00 -0.7071068E+00
  0.1366997E+01  0.1366997E+01 -0.1366997E+01   0.7071068E+00 -0.0000000E+00 -0.7071068E+00
  0.2733994E+01 -0.0000000E+00 -0.0000000E+00   0.7071068E+00 -0.0000000E+00 -0.7071068E+00
           4
  0.0000000E+00  0.2733994E+01  0.0000000E+00   0.0000000E+00  0.7071068E+00 -0.7071068E+00
  0.1366997E+01  0.1366997E+01 -0.1366997E+01   0.0000000E+00  0.7071068E+00 -0.7071068E+00
  0.0000000E+00  0.0000000E+00 -0.2733994E+01   0.0000000E+00  0.7071068E+00 -0.7071068E+00
 -0.1366997E+01  0.1366997E+01 -0.1366997E+01   0.0000000E+00  0.7071068E+00 -0.7071068E+00
           4
 -0.1366997E+01 -0.1366997E+01 -0.1366997E+01  -0.0000000E+00 -0.7071068E+00 -0.7071068E+00
  0.0000000E+00  0.0000000E+00 -0.2733994E+01  -0.0000000E+00 -0.7071068E+00 -0.7071068E+00
  0.1366997E+01 -0.1366997E+01 -0.1366997E+01  -0.0000000E+00 -0.7071068E+00 -0.7071068E+00
 -0.0000000E+00 -0.2733994E+01 -0.0000000E+00  -0.0000000E+00 -0.7071068E+00 -0.7071068E+00
           4
 -0.1366997E+01  0.1366997E+01 -0.1366997E+01  -0.7071068E+00 -0.0000000E+00 -0.7071068E+00
  0.0000000E+00  0.0000000E+00 -0.2733994E+01  -0.7071068E+00 -0.0000000E+00 -0.7071068E+00
 -0.1366997E+01 -0.1366997E+01 -0.1366997E+01  -0.7071068E+00 -0.0000000E+00 -0.7071068E+00
 -0.2733994E+01  0.0000000E+00  0.0000000E+00  -0.7071068E+00 -0.0000000E+00 -0.7071068E+00
           4
  0.2733994E+01 -0.0000000E+00 -0.0000000E+00   0.7071068E+00  0.7071068E+00 -0.0000000E+00
  0.1366997E+01  0.1366997E+01 -0.1366997E+01   0.7071068E+00  0.7071068E+00 -0.0000000E+00
  0.0000000E+00  0.2733994E+01  0.0000000E+00   0.7071068E+00  0.7071068E+00 -0.0000000E+00
  0.1366997E+01  0.1366997E+01  0.1366997E+01   0.7071068E+00  0.7071068E+00 -0.0000000E+00
           4
  0.1366997E+01 -0.1366997E+01  0.1366997E+01   0.7071068E+00 -0.7071068E+00  0.0000000E+00
 -0.0000000E+00 -0.2733994E+01 -0.0000000E+00   0.7071068E+00 -0.7071068E+00  0.0000000E+00
  0.1366997E+01 -0.1366997E+01 -0.1366997E+01   0.7071068E+00 -0.7071068E+00  0.0000000E+00
  0.2733994E+01 -0.0000000E+00 -0.0000000E+00   0.7071068E+00 -0.7071068E+00  0.0000000E+00
           4
 -0.0000000E+00 -0.0000000E+00  0.2733994E+01   0.7071068E+00  0.0000000E+00  0.7071068E+00
  0.1366997E+01 -0.1366997E+01  0.1366997E+01   0.7071068E+00  0.0000000E+00  0.7071068E+00
  0.2733994E+01 -0.0000000E+00 -0.0000000E+00   0.7071068E+00  0.0000000E+00  0.7071068E+00
  0.1366997E+01  0.1366997E+01  0.1366997E+01   0.7071068E+00  0.0000000E+00  0.7071068E+00
           4
  0.0000000E+00  0.2733994E+01  0.0000000E+00  -0.7071068E+00  0.7071068E+00 -0.0000000E+00
 -0.1366997E+01  0.1366997E+01 -0.1366997E+01  -0.7071068E+00  0.7071068E+00 -0.0000000E+00
 -0.2733994E+01  0.0000000E+00  0.0000000E+00  -0.7071068E+00  0.7071068E+00 -0.0000000E+00
 -0.1366997E+01  0.1366997E+01  0.1366997E+01  -0.7071068E+00  0.7071068E+00 -0.0000000E+00
           4
  0.0000000E+00  0.0000000E+00  0.2733994E+01   0.0000000E+00  0.7071068E+00  0.7071068E+00
  0.1366997E+01  0.1366997E+01  0.1366997E+01   0.0000000E+00  0.7071068E+00  0.7071068E+00
  0.0000000E+00  0.2733994E+01  0.0000000E+00   0.0000000E+00  0.7071068E+00  0.7071068E+00
 -0.1366997E+01  0.1366997E+01  0.1366997E+01   0.0000000E+00  0.7071068E+00  0.7071068E+00
           4
 -0.1366997E+01 -0.1366997E+01  0.1366997E+01  -0.7071068E+00 -0.7071068E+00  0.0000000E+00
 -0.2733994E+01 -0.0000000E+00 -0.0000000E+00  -0.7071068E+00 -0.7071068E+00  0.0000000E+00
 -0.1366997E+01 -0.1366997E+01 -0.1366997E+01  -0.7071068E+00 -0.7071068E+00  0.0000000E+00
 -0.0000000E+00 -0.2733994E+01 -0.0000000E+00  -0.7071068E+00 -0.7071068E+00  0.0000000E+00
           4
 -0.1366997E+01 -0.1366997E+01  0.1366997E+01  -0.0000000E+00 -0.7071068E+00  0.7071068E+00
 -0.0000000E+00 -0.2733994E+01 -0.0000000E+00  -0.0000000E+00 -0.7071068E+00  0.7071068E+00
  0.1366997E+01 -0.1366997E+01  0.1366997E+01  -0.0000000E+00 -0.7071068E+00  0.7071068E+00
 -0.0000000E+00 -0.0000000E+00  0.2733994E+01  -0.0000000E+00 -0.7071068E+00  0.7071068E+00
           4
 -0.0000000E+00 -0.0000000E+00  0.2733994E+01  -0.7071068E+00  0.0000000E+00  0.7071068E+00
 -0.1366997E+01  0.1366997E+01  0.1366997E+01  -0.7071068E+00  0.0000000E+00  0.7071068E+00
 -0.2733994E+01 -0.0000000E+00 -0.0000000E+00  -0.7071068E+00  0.0000000E+00  0.7071068E+00
 -0.1366997E+01 -0.1366997E+01  0.1366997E+01  -0.7071068E+00  0.0000000E+00  0.7071068E+00
 WIGNER-SEITZ-PRIMCELL_END
 WIGNER-SEITZ-CONVCELL
           4
 -0.2733994E+01 -0.2733994E+01  0.2733994E+01  -0.1000000E+01  0.0000000E+00  0.0000000E+00
 -0.2733994E+01  0.2733994E+01  0.2733994E+01  -0.1000000E+01  0.0000000E+00  0.0000000E+00
 -0.2733994E+01  0.2733994E+01 -0.2733994E+01  -0.1000000E+01  0.0000000E+00  0.0000000E+00
 -0.2733994E+01 -0.2733994E+01 -0.2733994E+01  -0.1000000E+01  0.0000000E+00  0.0000000E+00
           4
 -0.2733994E+01 -0.2733994E+01 -0.2733994E+01  -0.0000000E+00 -0.1000000E+01 -0.0000000E+00
  0.2733994E+01 -0.2733994E+01 -0.2733994E+01  -0.0000000E+00 -0.1000000E+01 -0.0000000E+00
  0.2733994E+01 -0.2733994E+01  0.2733994E+01  -0.0000000E+00 -0.1000000E+01 -0.0000000E+00
 -0.2733994E+01 -0.2733994E+01  0.2733994E+01  -0.0000000E+00 -0.1000000E+01 -0.0000000E+00
           4
 -0.2733994E+01  0.2733994E+01 -0.2733994E+01   0.0000000E+00  0.0000000E+00 -0.1000000E+01
  0.2733994E+01  0.2733994E+01 -0.2733994E+01   0.0000000E+00  0.0000000E+00 -0.1000000E+01
  0.2733994E+01 -0.2733994E+01 -0.2733994E+01   0.0000000E+00  0.0000000E+00 -0.1000000E+01
 -0.2733994E+01 -0.2733994E+01 -0.2733994E+01   0.0000000E+00  0.0000000E+00 -0.1000000E+01
           4
  0.2733994E+01 -0.2733994E+01  0.2733994E+01   0.5641208E-16 -0.0000000E+00  0.1000000E+01
  0.2733994E+01  0.2733994E+01  0.2733994E+01   0.5641208E-16 -0.0000000E+00  0.1000000E+01
 -0.2733994E+01  0.2733994E+01  0.2733994E+01   0.5641208E-16 -0.0000000E+00  0.1000000E+01
 -0.2733994E+01 -0.2733994E+01  0.2733994E+01   0.5641208E-16 -0.0000000E+00  0.1000000E+01
           4
  0.2733994E+01  0.2733994E+01  0.2733994E+01   0.0000000E+00  0.1000000E+01 -0.5941213E-16
  0.2733994E+01  0.2733994E+01 -0.2733994E+01   0.0000000E+00  0.1000000E+01 -0.5941213E-16
 -0.2733994E+01  0.2733994E+01 -0.2733994E+01   0.0000000E+00  0.1000000E+01 -0.5941213E-16
 -0.2733994E+01  0.2733994E+01  0.2733994E+01   0.0000000E+00  0.1000000E+01 -0.5941213E-16
           4
  0.2733994E+01 -0.2733994E+01  0.2733994E+01   0.1000000E+01 -0.0000000E+00 -0.0000000E+00
  0.2733994E+01 -0.2733994E+01 -0.2733994E+01   0.1000000E+01 -0.0000000E+00 -0.0000000E+00
  0.2733994E+01  0.2733994E+01 -0.2733994E+01   0.1000000E+01 -0.0000000E+00 -0.0000000E+00
  0.2733994E+01  0.2733994E+01  0.2733994E+01   0.1000000E+01 -0.0000000E+00 -0.0000000E+00
 WIGNER-SEITZ-CONVCELL_END
 BRILLOUIN-ZONE-PRIMCELL
           6
  0.1772527E-16 -0.1828826E+00 -0.9144131E-01   0.5773503E+00 -0.5773503E+00 -0.5773503E+00
 -0.1772527E-16 -0.9144131E-01 -0.1828826E+00   0.5773503E+00 -0.5773503E+00 -0.5773503E+00
  0.9144131E-01  0.0000000E+00 -0.1828826E+00   0.5773503E+00 -0.5773503E+00 -0.5773503E+00
  0.1828826E+00 -0.0000000E+00 -0.9144131E-01   0.5773503E+00 -0.5773503E+00 -0.5773503E+00
  0.1828826E+00 -0.9144131E-01  0.0000000E+00   0.5773503E+00 -0.5773503E+00 -0.5773503E+00
  0.9144131E-01 -0.1828826E+00 -0.0000000E+00   0.5773503E+00 -0.5773503E+00 -0.5773503E+00
           4
 -0.9144131E-01  0.0000000E+00 -0.1828826E+00   0.2074653E-15  0.0000000E+00 -0.1000000E+01
  0.1772527E-16  0.9144131E-01 -0.1828826E+00   0.2074653E-15  0.0000000E+00 -0.1000000E+01
  0.9144131E-01  0.0000000E+00 -0.1828826E+00   0.2074653E-15  0.0000000E+00 -0.1000000E+01
 -0.1772527E-16 -0.9144131E-01 -0.1828826E+00   0.2074653E-15  0.0000000E+00 -0.1000000E+01
           6
  0.1828826E+00 -0.0000000E+00 -0.9144131E-01   0.5773503E+00  0.5773503E+00 -0.5773503E+00
  0.9144131E-01  0.0000000E+00 -0.1828826E+00   0.5773503E+00  0.5773503E+00 -0.5773503E+00
  0.1772527E-16  0.9144131E-01 -0.1828826E+00   0.5773503E+00  0.5773503E+00 -0.5773503E+00
 -0.1772527E-16  0.1828826E+00 -0.9144131E-01   0.5773503E+00  0.5773503E+00 -0.5773503E+00
  0.9144131E-01  0.1828826E+00 -0.0000000E+00   0.5773503E+00  0.5773503E+00 -0.5773503E+00
  0.1828826E+00  0.9144131E-01  0.0000000E+00   0.5773503E+00  0.5773503E+00 -0.5773503E+00
           6
 -0.9144131E-01 -0.1828826E+00 -0.0000000E+00  -0.5773503E+00 -0.5773503E+00 -0.5773503E+00
 -0.1828826E+00 -0.9144131E-01  0.0000000E+00  -0.5773503E+00 -0.5773503E+00 -0.5773503E+00
 -0.1828826E+00 -0.0000000E+00 -0.9144131E-01  -0.5773503E+00 -0.5773503E+00 -0.5773503E+00
 -0.9144131E-01  0.0000000E+00 -0.1828826E+00  -0.5773503E+00 -0.5773503E+00 -0.5773503E+00
 -0.1772527E-16 -0.9144131E-01 -0.1828826E+00  -0.5773503E+00 -0.5773503E+00 -0.5773503E+00
  0.1772527E-16 -0.1828826E+00 -0.9144131E-01  -0.5773503E+00 -0.5773503E+00 -0.5773503E+00
           4
  0.1828826E+00 -0.9144131E-01  0.0000000E+00   0.1000000E+01 -0.0000000E+00 -0.0000000E+00
  0.1828826E+00 -0.0000000E+00 -0.9144131E-01   0.1000000E+01 -0.0000000E+00 -0.0000000E+00
  0.1828826E+00  0.9144131E-01  0.0000000E+00   0.1000000E+01 -0.0000000E+00 -0.0000000E+00
  0.1828826E+00 -0.0000000E+00  0.9144131E-01   0.1000000E+01 -0.0000000E+00 -0.0000000E+00
           6
 -0.1772527E-16 -0.1828826E+00  0.9144131E-01   0.5773503E+00 -0.5773503E+00  0.5773503E+00
  0.9144131E-01 -0.1828826E+00 -0.0000000E+00   0.5773503E+00 -0.5773503E+00  0.5773503E+00
  0.1828826E+00 -0.9144131E-01  0.0000000E+00   0.5773503E+00 -0.5773503E+00  0.5773503E+00
  0.1828826E+00 -0.0000000E+00  0.9144131E-01   0.5773503E+00 -0.5773503E+00  0.5773503E+00
  0.9144131E-01  0.0000000E+00  0.1828826E+00   0.5773503E+00 -0.5773503E+00  0.5773503E+00
  0.1772527E-16 -0.9144131E-01  0.1828826E+00   0.5773503E+00 -0.5773503E+00  0.5773503E+00
           4
 -0.1772527E-16 -0.1828826E+00  0.9144131E-01  -0.0000000E+00 -0.1000000E+01  0.0000000E+00
 -0.9144131E-01 -0.1828826E+00 -0.0000000E+00  -0.0000000E+00 -0.1000000E+01  0.0000000E+00
  0.1772527E-16 -0.1828826E+00 -0.9144131E-01  -0.0000000E+00 -0.1000000E+01  0.0000000E+00
  0.9144131E-01 -0.1828826E+00 -0.0000000E+00  -0.0000000E+00 -0.1000000E+01  0.0000000E+00
           6
 -0.1828826E+00  0.9144131E-01  0.0000000E+00  -0.5773503E+00  0.5773503E+00 -0.5773503E+00
 -0.9144131E-01  0.1828826E+00 -0.0000000E+00  -0.5773503E+00  0.5773503E+00 -0.5773503E+00
 -0.1772527E-16  0.1828826E+00 -0.9144131E-01  -0.5773503E+00  0.5773503E+00 -0.5773503E+00
  0.1772527E-16  0.9144131E-01 -0.1828826E+00  -0.5773503E+00  0.5773503E+00 -0.5773503E+00
 -0.9144131E-01  0.0000000E+00 -0.1828826E+00  -0.5773503E+00  0.5773503E+00 -0.5773503E+00
 -0.1828826E+00 -0.0000000E+00 -0.9144131E-01  -0.5773503E+00  0.5773503E+00 -0.5773503E+00
           6
  0.1828826E+00 -0.0000000E+00  0.9144131E-01   0.5773503E+00  0.5773503E+00  0.5773503E+00
  0.1828826E+00  0.9144131E-01  0.0000000E+00   0.5773503E+00  0.5773503E+00  0.5773503E+00
  0.9144131E-01  0.1828826E+00 -0.0000000E+00   0.5773503E+00  0.5773503E+00  0.5773503E+00
  0.1772527E-16  0.1828826E+00  0.9144131E-01   0.5773503E+00  0.5773503E+00  0.5773503E+00
 -0.1772527E-16  0.9144131E-01  0.1828826E+00   0.5773503E+00  0.5773503E+00  0.5773503E+00
  0.9144131E-01  0.0000000E+00  0.1828826E+00   0.5773503E+00  0.5773503E+00  0.5773503E+00
           4
  0.9144131E-01  0.1828826E+00 -0.0000000E+00   0.0000000E+00  0.1000000E+01 -0.0000000E+00
 -0.1772527E-16  0.1828826E+00 -0.9144131E-01   0.0000000E+00  0.1000000E+01 -0.0000000E+00
 -0.9144131E-01  0.1828826E+00 -0.0000000E+00   0.0000000E+00  0.1000000E+01 -0.0000000E+00
  0.1772527E-16  0.1828826E+00  0.9144131E-01   0.0000000E+00  0.1000000E+01 -0.0000000E+00
           6
  0.1772527E-16 -0.9144131E-01  0.1828826E+00  -0.5773503E+00 -0.5773503E+00  0.5773503E+00
 -0.9144131E-01  0.0000000E+00  0.1828826E+00  -0.5773503E+00 -0.5773503E+00  0.5773503E+00
 -0.1828826E+00 -0.0000000E+00  0.9144131E-01  -0.5773503E+00 -0.5773503E+00  0.5773503E+00
 -0.1828826E+00 -0.9144131E-01  0.0000000E+00  -0.5773503E+00 -0.5773503E+00  0.5773503E+00
 -0.9144131E-01 -0.1828826E+00 -0.0000000E+00  -0.5773503E+00 -0.5773503E+00  0.5773503E+00
 -0.1772527E-16 -0.1828826E+00  0.9144131E-01  -0.5773503E+00 -0.5773503E+00  0.5773503E+00
           4
 -0.1828826E+00 -0.0000000E+00  0.9144131E-01  -0.1000000E+01  0.0000000E+00  0.0000000E+00
 -0.1828826E+00  0.9144131E-01  0.0000000E+00  -0.1000000E+01  0.0000000E+00  0.0000000E+00
 -0.1828826E+00 -0.0000000E+00 -0.9144131E-01  -0.1000000E+01  0.0000000E+00  0.0000000E+00
 -0.1828826E+00 -0.9144131E-01  0.0000000E+00  -0.1000000E+01  0.0000000E+00  0.0000000E+00
           4
  0.1772527E-16 -0.9144131E-01  0.1828826E+00  -0.0000000E+00 -0.0000000E+00  0.1000000E+01
  0.9144131E-01  0.0000000E+00  0.1828826E+00  -0.0000000E+00 -0.0000000E+00  0.1000000E+01
 -0.1772527E-16  0.9144131E-01  0.1828826E+00  -0.0000000E+00 -0.0000000E+00  0.1000000E+01
 -0.9144131E-01  0.0000000E+00  0.1828826E+00  -0.0000000E+00 -0.0000000E+00  0.1000000E+01
           6
 -0.9144131E-01  0.0000000E+00  0.1828826E+00  -0.5773503E+00  0.5773503E+00  0.5773503E+00
 -0.1772527E-16  0.9144131E-01  0.1828826E+00  -0.5773503E+00  0.5773503E+00  0.5773503E+00
  0.1772527E-16  0.1828826E+00  0.9144131E-01  -0.5773503E+00  0.5773503E+00  0.5773503E+00
 -0.9144131E-01  0.1828826E+00 -0.0000000E+00  -0.5773503E+00  0.5773503E+00  0.5773503E+00
 -0.1828826E+00  0.9144131E-01  0.0000000E+00  -0.5773503E+00  0.5773503E+00  0.5773503E+00
 -0.1828826E+00 -0.0000000E+00  0.9144131E-01  -0.5773503E+00  0.5773503E+00  0.5773503E+00
 BRILLOUIN-ZONE-PRIMCELL_END
 BRILLOUIN-ZONE-CONVCELL
           4
 -0.9144131E-01 -0.9144131E-01  0.9144131E-01  -0.1000000E+01  0.0000000E+00  0.0000000E+00
 -0.9144131E-01  0.9144131E-01  0.9144131E-01  -0.1000000E+01  0.0000000E+00  0.0000000E+00
 -0.9144131E-01  0.9144131E-01 -0.9144131E-01  -0.1000000E+01  0.0000000E+00  0.0000000E+00
 -0.9144131E-01 -0.9144131E-01 -0.9144131E-01  -0.1000000E+01  0.0000000E+00  0.0000000E+00
           4
 -0.9144131E-01 -0.9144131E-01 -0.9144131E-01  -0.0000000E+00 -0.1000000E+01 -0.0000000E+00
  0.9144131E-01 -0.9144131E-01 -0.9144131E-01  -0.0000000E+00 -0.1000000E+01 -0.0000000E+00
  0.9144131E-01 -0.9144131E-01  0.9144131E-01  -0.0000000E+00 -0.1000000E+01 -0.0000000E+00
 -0.9144131E-01 -0.9144131E-01  0.9144131E-01  -0.0000000E+00 -0.1000000E+01 -0.0000000E+00
           4
 -0.9144131E-01  0.9144131E-01 -0.9144131E-01   0.0000000E+00  0.0000000E+00 -0.1000000E+01
  0.9144131E-01  0.9144131E-01 -0.9144131E-01   0.0000000E+00  0.0000000E+00 -0.1000000E+01
  0.9144131E-01 -0.9144131E-01 -0.9144131E-01   0.0000000E+00  0.0000000E+00 -0.1000000E+01
 -0.9144131E-01 -0.9144131E-01 -0.9144131E-01   0.0000000E+00  0.0000000E+00 -0.1000000E+01
           4
  0.9144131E-01 -0.9144131E-01  0.9144131E-01  -0.0000000E+00 -0.0000000E+00  0.1000000E+01
  0.9144131E-01  0.9144131E-01  0.9144131E-01  -0.0000000E+00 -0.0000000E+00  0.1000000E+01
 -0.9144131E-01  0.9144131E-01  0.9144131E-01  -0.0000000E+00 -0.0000000E+00  0.1000000E+01
 -0.9144131E-01 -0.9144131E-01  0.9144131E-01  -0.0000000E+00 -0.0000000E+00  0.1000000E+01
           4
 -0.9144131E-01  0.9144131E-01  0.9144131E-01   0.0000000E+00  0.1000000E+01  0.0000000E+00
  0.9144131E-01  0.9144131E-01  0.9144131E-01   0.0000000E+00  0.1000000E+01  0.0000000E+00
  0.9144131E-01  0.9144131E-01 -0.9144131E-01   0.0000000E+00  0.1000000E+01  0.0000000E+00
 -0.9144131E-01  0.9144131E-01 -0.9144131E-01   0.0000000E+00  0.1000000E+01  0.0000000E+00
           4
  0.9144131E-01 -0.9144131E-01  0.9144131E-01   0.1000000E+01 -0.0000000E+00 -0.0000000E+00
  0.9144131E-01 -0.9144131E-01 -0.9144131E-01   0.1000000E+01 -0.0000000E+00 -0.0000000E+00
  0.9144131E-01  0.9144131E-01 -0.9144131E-01   0.1000000E+01 -0.0000000E+00 -0.0000000E+00
  0.9144131E-01  0.9144131E-01  0.9144131E-01   0.1000000E+01 -0.0000000E+00 -0.0000000E+00
 BRILLOUIN-ZONE-CONVCELL_END
 ATOMS
   14    2.7339940480    2.7339940480    0.0000000000
   14    0.0000000000    0.0000000000    0.0000000000
   14    2.7339940480    0.0000000000    2.7339940480
   14    0.0000000000    2.7339940480    2.7339940480
   14    4.1009910720    4.1009910720    1.3669970240
   14    1.3669970240    1.3669970240    1.3669970240
   14    4.1009910720    1.3669970240    4.1009910720
   14    1.3669970240    4.1009910720    4.1009910720
 FRAMES
1      0.0000000000    0.0000000000    0.0000000000      5.4679880960    0.0000000000    0.0000000000
1      0.0000000000    0.0000000000    0.0000000000      0.0000000000    5.4679880960    0.0000000000
1      0.0000000000    0.0000000000    0.0000000000      0.0000000000    0.0000000000    5.4679880960
1      0.0000000000    0.0000000000    5.4679880960      5.4679880960    0.0000000000    5.4679880960
1      0.0000000000    0.0000000000    5.4679880960      0.0000000000    5.4679880960    5.4679880960
1      0.0000000000    5.4679880960    0.0000000000      5.4679880960    5.4679880960    0.0000000000
1      0.0000000000    5.4679880960    0.0000000000      0.0000000000    5.4679880960    5.4679880960
1      0.0000000000    5.4679880960    5.4679880960      5.4679880960    5.4679880960    5.4679880960
1      5.4679880960    0.0000000000    0.0000000000      5.4679880960    5.4679880960    0.0000000000
1      5.4679880960    0.0000000000    0.0000000000      5.4679880960    0.0000000000    5.4679880960
1      5.4679880960    0.0000000000    5.4679880960      5.4679880960    5.4679880960    5.4679880960
1      5.4679880960    5.4679880960    0.0000000000      5.4679880960    5.4679880960    5.4679880960
